36
Lattice="7.379955 0.000000 0.000000 0.000000 8.521639 0.000000 0.000000 0.000000 24.599851" Properties=species:S:1:pos:R:3
C 1.230148 0.000346 -0.171275
C -0.000049 0.710309 -0.173830
C -0.000040 2.131036 -0.187568
C 1.230319 2.840575 -0.195953
C 1.230362 4.260820 -0.196003
C 0.000040 4.970372 -0.187568
C 0.000049 6.391099 -0.173830
C 1.230207 7.101070 -0.171339
C 3.689986 0.000347 -0.174671
C 2.460300 0.710791 -0.180453
C 2.460484 2.131043 -0.197214
C 3.689989 2.840750 -0.205866
C 3.690011 4.260658 -0.205866
C 2.460536 4.970351 -0.197353
C 2.460378 6.390632 -0.180631
C 3.690014 7.101061 -0.174671
C 6.149793 0.000338 -0.171339
C 4.919622 0.710776 -0.180631
C 4.919464 2.131058 -0.197353
C 6.149638 2.840588 -0.196003
C 6.149681 4.260833 -0.195953
C 4.919516 4.970365 -0.197214
C 4.919700 6.390618 -0.180453
C 6.149852 7.101063 -0.171275
C 4.045002 2.201864 3.376522
C 2.698629 2.568654 3.375648
C 2.343674 3.917834 3.376477
C 3.334998 4.899544 3.376522
C 4.681371 4.532754 3.375648
C 5.036326 3.183575 3.376477
H 4.321577 1.150789 3.367591
H 1.927359 1.802930 3.366746
H 1.295646 4.205445 3.369173
H 3.058423 5.950620 3.367591
H 5.452641 5.298479 3.366746
H 6.084354 2.895964 3.369173
