36
Lattice="7.379955 0.000000 0.000000 0.000000 8.521639 0.000000 0.000000 0.000000 24.599851" Properties=species:S:1:pos:R:3
C 1.230281 -0.000064 -0.172623
C 0.000000 0.709698 -0.174664
C 0.000000 2.130324 -0.186828
C 1.230349 2.839782 -0.193162
C 1.230300 4.260044 -0.187420
C 0.000000 4.969747 -0.177052
C 0.000000 6.390620 -0.168282
C 1.230091 7.100738 -0.168324
C 3.690000 0.000181 -0.178065
C 2.460433 0.710188 -0.184722
C 2.460527 2.130235 -0.197995
C 3.690000 2.839919 -0.203709
C 3.690000 4.259902 -0.199212
C 2.460597 4.969775 -0.188712
C 2.460373 6.390326 -0.174650
C 3.690000 7.101030 -0.172537
C 6.149719 -0.000064 -0.172623
C 4.919567 0.710188 -0.184722
C 4.919473 2.130235 -0.197995
C 6.149651 2.839782 -0.193162
C 6.149700 4.260044 -0.187420
C 4.919403 4.969775 -0.188712
C 4.919627 6.390326 -0.174650
C 6.149909 7.100738 -0.168324
C 3.690000 1.445991 3.371051
C 2.482082 2.144051 3.370683
C 2.481964 3.539376 3.371179
C 3.690000 4.237223 3.370918
C 4.898036 3.539376 3.371179
C 4.897918 2.144051 3.370683
H 3.690000 0.359263 3.361855
H 1.540835 1.600565 3.361027
H 1.540793 4.082818 3.362239
H 3.690000 5.324092 3.361487
H 5.839207 4.082818 3.362239
H 5.839165 1.600565 3.361027
